57
N-isopropyl-P,P,P',P'-tetraphenyl-iminobisphosphine
P -0.72343795 -0.12959033 -1.48997189
C -1.42614757 -1.69343686 -0.80760796
C -1.18621353 -2.87013131 -1.53810026
C -1.57352721 -4.11465674 -1.03380840
C -2.21140546 -4.19762501 0.20708246
C -2.45736651 -3.03242324 0.94178853
C -2.06501987 -1.78858106 0.44338131
H -2.23000505 -0.89149422 1.03916552
H -2.94720976 -3.09230244 1.91724983
H -2.51459403 -5.17017216 0.60378374
H -1.37428231 -5.02088109 -1.61149210
H -0.67887134 -2.81014640 -2.50465558
C -1.95730729 1.17301589 -1.05425887
C -3.33206933 0.89651096 -0.94709413
C -4.24602696 1.91879571 -0.67592673
C -3.80676254 3.23536356 -0.51027320
C -2.44428086 3.52526981 -0.63397983
C -1.52955078 2.50769591 -0.91220902
H -0.47063011 2.76019201 -1.00549489
H -2.08743874 4.55096825 -0.50954272
H -4.52174731 4.03134770 -0.28793068
H -5.30942455 1.68070215 -0.58811920
H -3.69365023 -0.12712962 -1.06351447
P 0.74587750 0.16497303 0.28474432
N 0.24332223 0.36184397 1.76249267
C -0.29431270 1.55268602 2.39932122
C -1.81658859 1.46102737 2.58303508
H -2.06880956 0.55926296 3.16529435
H -2.20589045 2.34136062 3.12084764
H -2.33112009 1.40401810 1.61467827
C 0.38946702 1.72595763 3.76416661
H 1.47883321 1.84207246 3.65234077
H 0.21299260 0.83356851 4.38667199
H 0.00089932 2.60897234 4.29843744
H -0.08953926 2.47036108 1.80710349
C 1.60528615 -1.44157682 0.19655825
C 1.41721645 -2.36473821 1.23461302
C 1.98466933 -3.63746601 1.14079825
C 2.74122855 -3.99078621 0.01829964
C 2.93610613 -3.06638816 -1.01334842
C 2.36675297 -1.79321824 -0.92778006
H 2.51976010 -1.07507013 -1.73714659
H 3.53313725 -3.33709915 -1.88794230
H 3.18225137 -4.98858903 -0.05242836
H 1.83188083 -4.35923434 1.94730500
H 0.82059061 -2.06488203 2.09805228
C 1.92856912 1.44429273 -0.33065911
C 2.08251870 1.78863001 -1.68384063
C 3.00641701 2.76826886 -2.06091339
C 3.77946920 3.41499538 -1.09172099
C 3.62948274 3.07818769 0.25773921
C 2.70970359 2.09806118 0.63745906
H 2.59146472 1.82923555 1.68892602
H 4.23119261 3.58169974 1.01879547
H 4.49815259 4.18343837 -1.38806322
H 3.11953493 3.02848211 -3.11646966
H 1.47586587 1.29573993 -2.44752121
